LTspice 24.0.9 for Windows
Circuit: * C:\Users\BuLuT\Desktop\ödev\proje ekibi5. günödev\Draft2.asc
Start Time: Thu Feb  8 15:35:22 2024
solver = Normal
Maximum thread count: 12
tnom = 27
temp = 27
method = modified trap
WARNING: Node N002 is floating.

.OP point found by inspection.
Total elapsed time: 0.210 seconds.

